<?xml version="1.0" encoding="UTF-8"?>

<!-- generated on 10/29/18 15:37:51 by Eclipse SUMO polyconvert Version v1_0_1+0383-8ba62d898b
<configuration xmlns:xsi="http://www.w3.org/2001/XMLSchema-instance" xsi:noNamespaceSchemaLocation="http://sumo.dlr.de/xsd/polyconvertConfiguration.xsd">

    <input>
        <net-file value=".\Wyandotte.MI.net.xml"/>
        <osm-files value=".\Wyandotte.MI.osm"/>
        <type-file value="osm.typ.xml"/>
    </input>

    <output>
        <output-file value=".\Wyandotte.MI.poly.xml"/>
    </output>

    <processing>
        <poi-layer-offset value="5"/>
    </processing>

</configuration>
-->

<additional xmlns:xsi="http://www.w3.org/2001/XMLSchema-instance" xsi:noNamespaceSchemaLocation="http://sumo.dlr.de/xsd/additional_file.xsd">
    <location netOffset="-315939.63,-4662771.04" convBoundary="0.00,-823.56,8532.73,20372.09" origBoundary="-83.225750,42.089107,-83.127237,42.280352" projParameter="+proj=utm +zone=17 +ellps=WGS84 +datum=WGS84 +units=m +no_defs"/>

    <poly id="112607430" type="building" color="yellow" fill="1" layer="-1.00" shape="6446.948263,11927.564119 6480.618078,11927.147796 6480.524801,11976.161336 6446.386991,11975.700593 6446.948263,11927.564119"/>
    <poly id="112607433" type="building" color="yellow" fill="1" layer="-1.00" shape="6723.550620,12529.644454 6777.835836,12538.432078 6777.567996,12545.505495 6786.436866,12545.726491 6795.620727,12541.072895 6803.874176,12534.242751 6814.499769,12516.319530 6819.871710,12518.395325 6825.414341,12509.866826 6848.661707,12525.392409 6841.672824,12538.157313 6838.529764,12536.680920 6833.820912,12544.532853 6835.637499,12581.564869 6842.566660,12582.501456 6848.091927,12582.140074 6849.854859,12555.384571 6869.130526,12555.232470 6868.509707,12548.292552 6868.723171,12543.320512 6883.656442,12542.611139 6883.731375,12545.587029 6892.927641,12545.688803 6891.928035,12554.213967 6893.477320,12554.397179 6892.082624,12674.843342 6874.791272,12674.400983 6875.420613,12612.796269 6869.209939,12612.508224 6868.938180,12591.548409 6838.930186,12587.670824 6836.393477,12601.412492 6824.677517,12603.918707 6762.189065,12601.959678 6760.276956,12613.930088 6710.639467,12613.858821 6723.550620,12529.644454"/>
    <poly id="112607434" type="building" color="yellow" fill="1" layer="-1.00" shape="6368.577265,11584.708387 6368.480707,11611.644206 6371.256743,11611.651901 6371.228881,11618.074838 6368.460824,11618.055831 6368.447351,11620.467286 6369.818995,11620.477102 6369.781289,11632.400298 6368.401391,11632.390691 6368.396889,11635.157476 6371.718382,11635.173622 6371.692737,11641.029836 6368.371247,11641.013690 6368.271092,11668.460715 6361.892613,11668.432863 6361.908578,11665.465787 6354.034619,11665.431255 6354.007772,11672.220835 6349.471809,11672.202029 6349.498931,11665.423553 6342.186947,11665.397066 6342.153133,11672.564602 6328.305814,11672.514263 6328.331357,11665.346935 6326.786343,11665.341506 6326.769833,11668.286374 6319.590229,11668.267679 6319.695022,11639.376078 6318.315124,11639.366480 6318.378656,11622.253726 6319.758557,11622.263324 6319.897942,11584.926389 6326.334292,11584.952746 6326.332672,11586.197234 6330.868692,11586.216027 6330.888574,11580.459957 6354.039294,11580.542082 6354.019393,11586.298151 6361.785829,11586.324292 6361.794156,11584.690746 6368.577265,11584.708387"/>
    <poly id="112607434#1" type="leisure" color="77,255,77" fill="1" layer="-2.00" shape="6368.577265,11584.708387 6368.480707,11611.644206 6371.256743,11611.651901 6371.228881,11618.074838 6368.460824,11618.055831 6368.447351,11620.467286 6369.818995,11620.477102 6369.781289,11632.400298 6368.401391,11632.390691 6368.396889,11635.157476 6371.718382,11635.173622 6371.692737,11641.029836 6368.371247,11641.013690 6368.271092,11668.460715 6361.892613,11668.432863 6361.908578,11665.465787 6354.034619,11665.431255 6354.007772,11672.220835 6349.471809,11672.202029 6349.498931,11665.423553 6342.186947,11665.397066 6342.153133,11672.564602 6328.305814,11672.514263 6328.331357,11665.346935 6326.786343,11665.341506 6326.769833,11668.286374 6319.590229,11668.267679 6319.695022,11639.376078 6318.315124,11639.366480 6318.378656,11622.253726 6319.758557,11622.263324 6319.897942,11584.926389 6326.334292,11584.952746 6326.332672,11586.197234 6330.868692,11586.216027 6330.888574,11580.459957 6354.039294,11580.542082 6354.019393,11586.298151 6361.785829,11586.324292 6361.794156,11584.690746 6368.577265,11584.708387"/>
    <poly id="112607434#2" type="sport" color="79,230,125" fill="1" layer="-2.00" shape="6368.577265,11584.708387 6368.480707,11611.644206 6371.256743,11611.651901 6371.228881,11618.074838 6368.460824,11618.055831 6368.447351,11620.467286 6369.818995,11620.477102 6369.781289,11632.400298 6368.401391,11632.390691 6368.396889,11635.157476 6371.718382,11635.173622 6371.692737,11641.029836 6368.371247,11641.013690 6368.271092,11668.460715 6361.892613,11668.432863 6361.908578,11665.465787 6354.034619,11665.431255 6354.007772,11672.220835 6349.471809,11672.202029 6349.498931,11665.423553 6342.186947,11665.397066 6342.153133,11672.564602 6328.305814,11672.514263 6328.331357,11665.346935 6326.786343,11665.341506 6326.769833,11668.286374 6319.590229,11668.267679 6319.695022,11639.376078 6318.315124,11639.366480 6318.378656,11622.253726 6319.758557,11622.263324 6319.897942,11584.926389 6326.334292,11584.952746 6326.332672,11586.197234 6330.868692,11586.216027 6330.888574,11580.459957 6354.039294,11580.542082 6354.019393,11586.298151 6361.785829,11586.324292 6361.794156,11584.690746 6368.577265,11584.708387"/>
    <poly id="112607436" type="building" color="yellow" fill="1" layer="-1.00" shape="6736.752051,12252.056119 6742.123934,12254.120756 6798.839102,12254.025206 6799.416987,12276.966194 6737.341330,12275.441271 6732.838658,12272.465845 6732.036940,12258.352714 6736.752051,12252.056119"/>
    <poly id="116751736" type="building" color="yellow" fill="1" layer="-1.00" shape="3473.097885,9996.875154 3478.914768,9997.814900 3478.920469,9995.136917 3507.731235,9995.287083 3507.900916,10001.905099 3600.559171,10002.174526 3600.412342,9996.444834 3655.825460,9996.347284 3656.219923,9890.779462 3631.378168,9890.093634 3631.294098,9904.229412 3501.868443,9904.890990 3501.245024,9915.062750 3479.979989,9915.608006 3480.115145,9955.360965 3468.171481,9956.545041 3467.869039,9996.309229 3473.097885,9996.875154"/>
    <poly id="116751736#1" type="shop" color="255,153,26" fill="1" layer="-1.00" shape="3473.097885,9996.875154 3478.914768,9997.814900 3478.920469,9995.136917 3507.731235,9995.287083 3507.900916,10001.905099 3600.559171,10002.174526 3600.412342,9996.444834 3655.825460,9996.347284 3656.219923,9890.779462 3631.378168,9890.093634 3631.294098,9904.229412 3501.868443,9904.890990 3501.245024,9915.062750 3479.979989,9915.608006 3480.115145,9955.360965 3468.171481,9956.545041 3467.869039,9996.309229 3473.097885,9996.875154"/>
    <poly id="116751749" type="building" color="yellow" fill="1" layer="-1.00" shape="3566.182368,10490.232810 3627.458789,10489.506726 3629.592432,10486.351982 3633.134939,10486.261203 3636.285035,10487.947186 3709.957729,10489.226450 3711.019619,10486.488082 3718.713387,10487.168812 3718.453911,10489.619954 3753.145114,10490.064846 3757.417788,10487.510936 3763.137856,10491.786774 3754.749077,10498.168384 3754.374893,10581.646365 3748.150779,10580.916853 3747.065033,10607.889666 3575.055668,10606.552382 3574.861576,10529.677869 3560.215834,10529.208850 3560.472438,10522.135447 3565.801403,10522.432179 3565.375844,10505.831608 3566.182368,10490.232810"/>
    <poly id="116751749#1" type="shop" color="255,153,26" fill="1" layer="-1.00" shape="3566.182368,10490.232810 3627.458789,10489.506726 3629.592432,10486.351982 3633.134939,10486.261203 3636.285035,10487.947186 3709.957729,10489.226450 3711.019619,10486.488082 3718.713387,10487.168812 3718.453911,10489.619954 3753.145114,10490.064846 3757.417788,10487.510936 3763.137856,10491.786774 3754.749077,10498.168384 3754.374893,10581.646365 3748.150779,10580.916853 3747.065033,10607.889666 3575.055668,10606.552382 3574.861576,10529.677869 3560.215834,10529.208850 3560.472438,10522.135447 3565.801403,10522.432179 3565.375844,10505.831608 3566.182368,10490.232810"/>
    <poly id="116771683" type="building" color="yellow" fill="1" layer="-1.00" shape="4885.405031,11411.261354 4898.920856,11410.917322 4898.684858,11401.645429 4884.948694,11401.772845 4885.405031,11411.261354"/>
    <poly id="116771683#1" type="shop" color="255,153,26" fill="1" layer="-1.00" shape="4885.405031,11411.261354 4898.920856,11410.917322 4898.684858,11401.645429 4884.948694,11401.772845 4885.405031,11411.261354"/>
    <poly id="116771684" type="building" color="yellow" fill="1" layer="-1.00" shape="4641.774336,11470.012439 4641.823360,11502.078348 4633.132288,11502.088777 4633.083225,11470.022867 4641.774336,11470.012439"/>
    <poly id="116771686" type="building" color="yellow" fill="1" layer="-1.00" shape="5873.598142,11419.565398 5882.157867,11419.915385 5881.620093,11432.940179 5873.051847,11432.579297 5873.598142,11419.565398"/>
    <poly id="116771687" type="building" color="yellow" fill="1" layer="-1.00" shape="4698.728262,11406.359991 4703.323388,11406.420682 4703.220975,11416.667887 4699.184749,11416.492953 4698.728262,11406.359991"/>
    <poly id="116771687#1" type="shop" color="255,153,26" fill="1" layer="-1.00" shape="4698.728262,11406.359991 4703.323388,11406.420682 4703.220975,11416.667887 4699.184749,11416.492953 4698.728262,11406.359991"/>
    <poly id="116771688" type="building" color="yellow" fill="1" layer="-1.00" shape="4452.188009,11409.979808 4461.824169,11409.767268 4462.363254,11433.809469 4452.727127,11434.022010 4452.188009,11409.979808"/>
    <poly id="116771689" type="building" color="yellow" fill="1" layer="-1.00" shape="4485.500951,11471.230882 4500.342809,11471.052251 4500.519859,11486.736882 4495.589097,11486.796001 4495.678600,11494.838294 4485.775805,11494.957596 4485.500951,11471.230882"/>
    <poly id="116771689#1" type="shop" color="255,153,26" fill="1" layer="-1.00" shape="4485.500951,11471.230882 4500.342809,11471.052251 4500.519859,11486.736882 4495.589097,11486.796001 4495.678600,11494.838294 4485.775805,11494.957596 4485.500951,11471.230882"/>
    <poly id="116771690" type="building" color="yellow" fill="1" layer="-1.00" shape="4356.692591,11403.317007 4415.413437,11403.140353 4415.035453,11433.650519 4396.482357,11434.090721 4396.358500,11429.238243 4390.190113,11429.040130 4384.823735,11428.865995 4384.694201,11423.791436 4356.544619,11423.410025 4356.692591,11403.317007"/>
    <poly id="116771692" type="building" color="yellow" fill="1" layer="-1.00" shape="5191.151604,11467.597029 5200.488445,11467.315322 5200.981481,11483.791861 5196.663967,11483.923796 5191.644662,11484.073568 5191.151604,11467.597029"/>
    <poly id="116771692#1" type="shop" color="255,153,26" fill="1" layer="-1.00" shape="5191.151604,11467.597029 5200.488445,11467.315322 5200.981481,11483.791861 5196.663967,11483.923796 5191.644662,11484.073568 5191.151604,11467.597029"/>
    <poly id="116771693" type="building" color="yellow" fill="1" layer="-1.00" shape="4196.847386,11435.222417 4224.102177,11435.181597 4224.670593,11405.366522 4197.409729,11405.174151 4196.847386,11435.222417"/>
    <poly id="116771694" type="building" color="yellow" fill="1" layer="-1.00" shape="5017.276557,11429.317174 5017.338131,11431.737859 4974.574872,11431.725720 4974.310699,11404.132095 5015.965000,11403.739111 5017.340819,11414.304245 5017.276557,11429.317174"/>
    <poly id="116771695" type="leisure" color="77,255,77" fill="1" layer="-2.00" shape="5684.407928,11609.091884 5683.995875,11548.824116 5689.036994,11546.929683 5796.743932,11547.289910 5803.217647,11549.114857 5803.614439,11608.494067 5798.559458,11610.166546 5688.874994,11610.300908 5684.407928,11609.091884"/>
    <poly id="116771695#1" type="sport" color="79,230,125" fill="1" layer="-2.00" shape="5684.407928,11609.091884 5683.995875,11548.824116 5689.036994,11546.929683 5796.743932,11547.289910 5803.217647,11549.114857 5803.614439,11608.494067 5798.559458,11610.166546 5688.874994,11610.300908 5684.407928,11609.091884"/>
    <poly id="116771697" type="building" color="yellow" fill="1" layer="-1.00" shape="4099.229548,11406.950252 4109.869590,11406.900456 4109.870083,11430.834243 4099.178267,11430.796473 4099.229548,11406.950252"/>
    <poly id="116771697#1" type="shop" color="255,153,26" fill="1" layer="-1.00" shape="4099.229548,11406.950252 4109.869590,11406.900456 4109.870083,11430.834243 4099.178267,11430.796473 4099.229548,11406.950252"/>
    <poly id="116771698" type="building" color="yellow" fill="1" layer="-1.00" shape="4810.968950,11467.823945 4831.259101,11467.796160 4831.304547,11502.351036 4796.945154,11502.392682 4796.935896,11493.270567 4810.996999,11493.256919 4810.968950,11467.823945"/>
    <poly id="116771699" type="building" color="yellow" fill="1" layer="-1.00" shape="4201.113598,11472.202990 4200.912274,11498.919749 4191.830253,11499.151827 4191.017998,11475.772141 4193.352057,11471.734643 4201.113598,11472.202990"/>
    <poly id="116771700" type="building" color="yellow" fill="1" layer="-1.00" shape="6477.561312,11270.624317 6490.689721,11265.726461 6502.875638,11298.141299 6489.747283,11303.039134 6477.561312,11270.624317"/>
    <poly id="116771701" type="building" color="yellow" fill="1" layer="-1.00" shape="6072.322269,11403.448623 6091.813509,11401.889116 6093.003142,11412.670189 6108.430847,11411.813470 6108.353033,11426.382156 6093.427430,11426.837291 6092.838819,11433.618865 6072.211715,11434.362648 6071.921665,11422.892160 6076.770481,11421.880660 6074.265095,11419.510669 6073.325784,11417.323301 6073.264293,11414.891513 6075.426752,11412.847936 6075.365543,11410.427253 6072.052078,11410.733261 6072.322269,11403.448623"/>
    <poly id="116771702" type="building" color="yellow" fill="1" layer="-1.00" shape="4722.615451,11431.740618 4737.012087,11431.596057 4736.869518,11417.243926 4761.471341,11417.495000 4761.746954,11402.043315 4736.710261,11402.236655 4736.627932,11407.761055 4722.674497,11408.116548 4722.615451,11431.740618"/>
    <poly id="116771702#1" type="shop" color="255,153,26" fill="1" layer="-1.00" shape="4722.615451,11431.740618 4737.012087,11431.596057 4736.869518,11417.243926 4761.471341,11417.495000 4761.746954,11402.043315 4736.710261,11402.236655 4736.627932,11407.761055 4722.674497,11408.116548 4722.615451,11431.740618"/>
    <poly id="116771703" type="building" color="yellow" fill="1" layer="-1.00" shape="5283.188615,11474.814436 5292.168931,11474.808575 5292.173929,11484.764104 5299.964752,11484.766241 5299.970933,11498.021773 5283.199838,11498.025499 5283.188615,11474.814436"/>
    <poly id="116771704" type="building" color="yellow" fill="1" layer="-1.00" shape="6249.260081,11487.054723 6249.856641,11501.839690 6234.131027,11502.014745 6233.991496,11487.662676 6249.260081,11487.054723"/>
    <poly id="116771704#1" type="shop" color="255,153,26" fill="1" layer="-1.00" shape="6249.260081,11487.054723 6249.856641,11501.839690 6234.131027,11502.014745 6233.991496,11487.662676 6249.260081,11487.054723"/>
    <poly id="116771705" type="building" color="yellow" fill="1" layer="-1.00" shape="4210.181040,11485.949339 4241.780199,11485.864240 4241.804179,11497.474954 4210.213329,11497.559843 4210.181040,11485.949339"/>
    <poly id="116771706" type="building" color="yellow" fill="1" layer="-1.00" shape="4556.009573,11471.010204 4577.351761,11470.765967 4577.480255,11482.285095 4567.816600,11482.387071 4567.884871,11488.952101 4556.206101,11489.083259 4556.009573,11471.010204"/>
    <poly id="116771707" type="building" color="yellow" fill="1" layer="-1.00" shape="5884.240695,11418.318209 5892.212809,11418.627528 5891.651336,11432.675147 5883.678957,11432.354725 5884.240695,11418.318209"/>
    <poly id="116771710" type="building" color="yellow" fill="1" layer="-1.00" shape="5021.762903,11492.337165 5021.010176,11506.267594 5013.458076,11505.581909 5012.849536,11499.197309 5009.519183,11498.837576 5009.218472,11469.478195 5021.613917,11468.940667 5021.762903,11492.337165"/>
    <poly id="116771710#1" type="shop" color="255,153,26" fill="1" layer="-1.00" shape="5021.762903,11492.337165 5021.010176,11506.267594 5013.458076,11505.581909 5012.849536,11499.197309 5009.519183,11498.837576 5009.218472,11469.478195 5021.613917,11468.940667 5021.762903,11492.337165"/>
    <poly id="116771711" type="building" color="yellow" fill="1" layer="-1.00" shape="5148.541422,11406.312605 5189.860105,11406.695853 5189.749355,11417.943234 5138.795258,11417.471569 5138.905926,11406.224185 5148.541422,11406.312605"/>
    <poly id="116771711#1" type="shop" color="255,153,26" fill="1" layer="-1.00" shape="5148.541422,11406.312605 5189.860105,11406.695853 5189.749355,11417.943234 5138.795258,11417.471569 5138.905926,11406.224185 5148.541422,11406.312605"/>
    <poly id="116771712" type="building" color="yellow" fill="1" layer="-1.00" shape="6460.675298,11489.728260 6469.169790,11489.791710 6483.630380,11489.904652 6483.595931,11494.761080 6469.027740,11494.639743 6460.640585,11494.573584 6460.675298,11489.728260"/>
    <poly id="116771713" type="building" color="yellow" fill="1" layer="-1.00" shape="4587.514825,11470.484602 4593.493876,11470.387708 4593.795330,11488.691420 4587.816578,11488.799418 4587.514825,11470.484602"/>
    <poly id="116771713#1" type="shop" color="255,153,26" fill="1" layer="-1.00" shape="4587.514825,11470.484602 4593.493876,11470.387708 4593.795330,11488.691420 4587.816578,11488.799418 4587.514825,11470.484602"/>
    <poly id="116771714" type="parking" color="184,184,179" fill="1" layer="-1.00" shape="6325.434903,11554.897617 6325.499274,11548.940424 6319.744670,11549.085739 6319.109276,11532.757306 6325.287581,11531.723512 6325.315634,11515.167215 6441.775849,11511.782955 6441.062537,11510.034287 6325.215253,11511.191964 6325.036933,11495.296436 6319.915030,11494.325770 6319.508457,11469.391543 6372.894283,11469.365881 6373.038924,11475.095571 6379.024765,11474.944466 6378.506526,11480.924223 6373.206272,11481.724690 6372.456275,11487.032521 6337.248688,11488.143628 6336.454445,11482.863672 6333.601026,11484.046833 6333.606332,11493.091161 6335.888682,11495.466869 6337.106640,11491.024997 6441.012688,11490.379969 6441.831920,11496.325969 6450.462410,11495.885964 6455.032818,11492.681747 6456.055668,11489.344823 6455.749253,11486.041441 6452.095778,11481.711402 6447.319255,11485.587489 6445.828432,11488.058444 6383.567239,11488.307597 6383.679051,11466.226965 6392.953269,11465.103975 6392.825083,11468.862771 6394.906640,11472.121345 6397.813197,11473.370205 6399.694356,11468.689384 6472.127224,11467.517076 6478.361351,11468.693125 6482.602765,11470.130564 6485.333579,11472.928338 6485.201764,11502.742795 6454.419494,11503.408343 6454.427280,11521.397053 6449.801133,11522.391565 6449.450001,11526.155985 6446.381920,11527.344517 6441.931492,11526.790155 6441.610456,11549.098281 6439.380970,11548.487875 6438.617355,11553.584929 6400.297204,11554.107619 6400.865900,11550.126593 6380.684382,11549.524909 6380.578632,11554.172030 6325.434903,11554.897617"/>
    <poly id="116771715" type="building" color="yellow" fill="1" layer="-1.00" shape="4514.079694,11469.012918 4522.622766,11469.028342 4522.549420,11500.486281 4514.014643,11500.470647 4514.079694,11469.012918"/>
    <poly id="116771716" type="building" color="yellow" fill="1" layer="-1.00" shape="5969.726591,11436.032675 5969.742230,11416.732190 5970.039461,11416.724669 5979.945644,11416.740708 5979.929978,11436.041192 5969.726591,11436.032675"/>
    <poly id="116771717" type="building" color="yellow" fill="1" layer="-1.00" shape="5191.786421,11485.425536 5189.291306,11485.422275 5189.282470,11505.556054 5202.542359,11505.552435 5202.549710,11489.585408 5196.658977,11489.579540 5196.663967,11483.923796 5191.644662,11484.073568 5191.786421,11485.425536"/>
    <poly id="116771718" type="building" color="yellow" fill="1" layer="-1.00" shape="5034.675523,11468.608443 5035.186146,11488.684589 5030.986697,11489.235850 5030.856196,11492.550321 5021.762903,11492.337165 5021.613917,11468.940667 5034.675523,11468.608443"/>
    <poly id="116771719" type="building" color="yellow" fill="1" layer="-1.00" shape="4156.329357,11530.504144 4155.969407,11535.168990 4114.267692,11533.368269 4114.289710,11505.144930 4112.036286,11505.224762 4112.346013,11494.072181 4122.236270,11494.430463 4122.890958,11496.124871 4156.100293,11496.976020 4156.152773,11520.686246 4156.329357,11530.504144"/>
    <poly id="116771720" type="building" color="yellow" fill="1" layer="-1.00" shape="4633.132288,11502.088777 4632.557499,11505.792375 4622.919545,11505.604729 4623.115763,11495.477348 4623.503772,11470.511515 4633.083225,11470.022867 4633.132288,11502.088777"/>
    <poly id="116771721" type="building" color="yellow" fill="1" layer="-1.00" shape="5098.676536,11412.291392 5107.981487,11412.377049 5107.806396,11432.137283 5098.501753,11432.062731 5098.676536,11412.291392"/>
    <poly id="116771722" type="building" color="yellow" fill="1" layer="-1.00" shape="4471.376549,11407.890184 4482.911335,11408.262575 4483.016129,11403.626492 4497.154104,11403.054703 4497.349370,11427.550122 4494.100051,11427.455233 4493.720598,11433.631681 4485.349775,11433.245222 4484.537133,11427.299189 4471.643463,11427.094803 4471.376549,11407.890184"/>
    <poly id="116771726" type="building" color="yellow" fill="1" layer="-1.00" shape="5025.034998,11429.342056 5017.276557,11429.317174 5017.340819,11414.304245 5024.887367,11414.767856 5025.034998,11429.342056"/>
    <poly id="116771729" type="building" color="yellow" fill="1" layer="-1.00" shape="5220.285350,11422.189600 5233.351262,11422.024308 5233.091392,11401.064024 5220.025441,11401.229315 5220.285350,11422.189600"/>
    <poly id="116771732" type="building" color="yellow" fill="1" layer="-1.00" shape="4896.875859,11487.348161 4897.241033,11501.694613 4883.931344,11501.366735 4883.536904,11494.310015 4872.428880,11493.492774 4872.539577,11489.078785 4856.122413,11488.385617 4856.086941,11478.230826 4874.917147,11477.973665 4875.439488,11472.204735 4883.722849,11472.404988 4883.794717,11487.236690 4896.875859,11487.348161"/>
    <poly id="116771732#1" type="shop" color="255,153,26" fill="1" layer="-1.00" shape="4896.875859,11487.348161 4897.241033,11501.694613 4883.931344,11501.366735 4883.536904,11494.310015 4872.428880,11493.492774 4872.539577,11489.078785 4856.122413,11488.385617 4856.086941,11478.230826 4874.917147,11477.973665 4875.439488,11472.204735 4883.722849,11472.404988 4883.794717,11487.236690 4896.875859,11487.348161"/>
    <poly id="116771734" type="building" color="yellow" fill="1" layer="-1.00" shape="6239.807351,11411.126663 6240.481909,11428.998555 6231.622802,11429.222366 6231.851136,11411.772109 6239.807351,11411.126663"/>
    <poly id="116771735" type="building" color="yellow" fill="1" layer="-1.00" shape="5126.577349,11431.171188 5135.224863,11431.395815 5135.313304,11411.148895 5126.498942,11410.861840 5126.577349,11431.171188"/>
    <poly id="116771736" type="building" color="yellow" fill="1" layer="-1.00" shape="4706.476890,11470.196825 4706.390613,11484.643682 4688.658555,11484.551082 4688.736256,11470.093330 4706.476890,11470.196825"/>
    <poly id="116771737" type="building" color="yellow" fill="1" layer="-1.00" shape="6129.864282,11392.960465 6113.692565,11393.147052 6114.267405,11433.532660 6130.901716,11434.001045 6129.864282,11392.960465"/>
    <poly id="116771738" type="building" color="yellow" fill="1" layer="-1.00" shape="5290.566436,11427.326573 5298.472067,11427.292462 5298.412501,11415.838305 5290.515114,11415.872206 5290.566436,11427.326573"/>
    <poly id="116771739" type="building" color="yellow" fill="1" layer="-1.00" shape="4182.105341,11405.365231 4181.698828,11435.042847 4168.863778,11434.870850 4169.278493,11405.193021 4182.105341,11405.365231"/>
    <poly id="116771741" type="building" color="yellow" fill="1" layer="-1.00" shape="4271.638874,11413.433532 4271.099155,11435.969949 4252.692208,11435.340111 4251.877298,11412.171614 4264.063866,11411.860319 4264.445300,11409.650536 4271.735115,11410.408797 4271.638874,11413.433532"/>
    <poly id="116771742" type="building" color="yellow" fill="1" layer="-1.00" shape="4297.343367,11434.532977 4297.260368,11413.490274 4271.638874,11413.433532 4271.735115,11410.408797 4271.389759,11404.650846 4327.138648,11403.916023 4327.066535,11434.418405 4297.343367,11434.532977"/>
    <poly id="116771742#1" type="shop" color="255,153,26" fill="1" layer="-1.00" shape="4297.343367,11434.532977 4297.260368,11413.490274 4271.638874,11413.433532 4271.735115,11410.408797 4271.389759,11404.650846 4327.138648,11403.916023 4327.066535,11434.418405 4297.343367,11434.532977"/>
    <poly id="116771743" type="building" color="yellow" fill="1" layer="-1.00" shape="4962.246629,11488.806781 4962.302324,11501.061076 4902.138524,11501.303283 4902.091264,11489.059879 4962.246629,11488.806781"/>
    <poly id="116771743#1" type="shop" color="255,153,26" fill="1" layer="-1.00" shape="4962.246629,11488.806781 4962.302324,11501.061076 4902.138524,11501.303283 4902.091264,11489.059879 4962.246629,11488.806781"/>
    <poly id="116771744" type="building" color="yellow" fill="1" layer="-1.00" shape="5071.241140,11432.189209 5088.971576,11432.216152 5089.477024,11401.080716 5077.996653,11400.894841 5077.798512,11412.922243 5072.134236,11413.377389 5071.241140,11432.189209"/>
    <poly id="116771749" type="building" color="yellow" fill="1" layer="-1.00" shape="6291.449136,11393.711099 6291.161679,11434.996222 6276.534018,11435.143445 6276.584176,11428.297718 6279.242733,11428.230570 6279.309722,11422.051087 6276.194098,11421.685334 6276.060318,11416.388701 6279.175944,11416.754454 6278.992245,11409.481300 6275.661949,11409.120969 6275.514260,11394.769112 6291.449136,11393.711099"/>
    <poly id="116771750" type="building" color="yellow" fill="1" layer="-1.00" shape="6080.881918,11470.776886 6080.768378,11501.246541 6063.262302,11501.255886 6063.397951,11471.663448 6080.881918,11470.776886"/>
    <poly id="116771750#1" type="shop" color="255,153,26" fill="1" layer="-1.00" shape="6080.881918,11470.776886 6080.768378,11501.246541 6063.262302,11501.255886 6063.397951,11471.663448 6080.881918,11470.776886"/>
    <poly id="116771751" type="building" color="yellow" fill="1" layer="-1.00" shape="5212.754166,11487.359426 5240.565381,11487.452831 5240.511679,11501.598789 5212.700237,11501.494283 5212.754166,11487.359426"/>
    <poly id="116771753" type="building" color="yellow" fill="1" layer="-1.00" shape="5080.944172,11466.776223 5097.115826,11466.587258 5097.180427,11486.674739 5081.041981,11486.218410 5080.944172,11466.776223"/>
    <poly id="116771756" type="building" color="yellow" fill="1" layer="-1.00" shape="5953.703790,11431.326954 5962.442431,11431.239176 5962.302421,11417.542654 5953.555788,11417.641745 5953.703790,11431.326954"/>
    <poly id="116771757" type="building" color="yellow" fill="1" layer="-1.00" shape="4424.410569,11485.689921 4469.617784,11486.291915 4469.419846,11500.552760 4424.212439,11499.939665 4424.410569,11485.689921"/>
    <poly id="116771757#1" type="shop" color="255,153,26" fill="1" layer="-1.00" shape="4424.410569,11485.689921 4469.617784,11486.291915 4469.419846,11500.552760 4424.212439,11499.939665 4424.410569,11485.689921"/>
    <poly id="116771758" type="leisure" color="77,255,77" fill="1" layer="-2.00" shape="5796.475603,11615.308245 5690.115554,11615.569508 5680.963765,11612.712530 5668.838432,11606.619794 5662.191356,11597.954870 5658.397824,11588.117616 5658.067683,11575.092554 5660.441087,11563.776759 5667.080921,11554.552846 5675.769538,11547.932591 5688.927907,11542.299082 5790.866694,11542.594289 5802.646204,11543.840407 5814.490002,11547.951601 5823.566896,11556.332905 5829.035256,11570.983410 5829.919293,11579.794411 5827.136166,11592.231628 5822.053680,11601.627056 5814.925787,11608.874273 5805.743949,11613.962391 5796.475603,11615.308245"/>
    <poly id="116771759" type="building" color="yellow" fill="1" layer="-1.00" shape="5939.292076,11418.136014 5947.479067,11417.795509 5948.011976,11430.693198 5939.825000,11431.033702 5939.292076,11418.136014"/>
    <poly id="116771760" type="building" color="yellow" fill="1" layer="-1.00" shape="6472.257591,11503.791592 6478.428584,11510.980349 6488.845082,11510.928663 6488.900484,11522.293940 6494.918320,11527.997683 6471.886742,11551.634323 6465.595031,11545.226398 6454.980020,11545.594241 6455.214221,11533.921653 6448.910039,11528.002946 6472.257591,11503.791592"/>
    <poly id="116771762" type="building" color="yellow" fill="1" layer="-1.00" shape="4413.911876,11471.202058 4420.263603,11471.139951 4420.522748,11497.156005 4414.171044,11497.218112 4413.911876,11471.202058"/>
    <poly id="116771762#1" type="shop" color="255,153,26" fill="1" layer="-1.00" shape="4413.911876,11471.202058 4420.263603,11471.139951 4420.522748,11497.156005 4414.171044,11497.218112 4413.911876,11471.202058"/>
    <poly id="116771764" type="building" color="yellow" fill="1" layer="-1.00" shape="6104.996213,11486.733907 6165.044853,11486.538215 6164.735625,11509.279437 6149.414203,11508.122239 6148.873777,11504.391442 6104.308167,11503.306919 6104.996213,11486.733907"/>
    <poly id="116771764#1" type="shop" color="255,153,26" fill="1" layer="-1.00" shape="6104.996213,11486.733907 6165.044853,11486.538215 6164.735625,11509.279437 6149.414203,11508.122239 6148.873777,11504.391442 6104.308167,11503.306919 6104.996213,11486.733907"/>
    <poly id="116771768" type="building" color="yellow" fill="1" layer="-1.00" shape="4347.927278,11491.031220 4367.753377,11490.947279 4367.795967,11502.324169 4347.969900,11502.408111 4347.927278,11491.031220"/>