<configuration> 
    <input> 
        <net-file value="Wyandotte.MI.net.xml" /> 
        <route-files value="Wyandotte.MI.rou.xml" />
		<additional-files value="Wyandotte.MI.poly.xml" />
    </input> 
    <time> 
        <begin value="0" /> 
        <end value="30000" /> 
    </time> 
</configuration> 
